Circuit: * C:\Users\Kranthi\OneDrive\Desktop\Draft1.asc

Ignoring BSIM parameter XL
Ignoring BSIM parameter XW
Ignoring BSIM parameter XL
Ignoring BSIM parameter XW
WARNING: Node N002 is floating.
WARNING: Node N003 is floating.
WARNING: Node NC_01 is floating.

WARNING: Less than two connections to node N002.  This node is used by M5.
WARNING: Less than two connections to node N003.  This node is used by M7.
Warning: Pd = 0 is less than W.
Warning: Ps = 0 is less than W.
Warning: Pd = 0 is less than W.
Warning: Ps = 0 is less than W.
Warning: Pd = 0 is less than W.
Warning: Ps = 0 is less than W.
Singular matrix:  Check node n018
   Iteration No. 6
Direct Newton iteration failed to find .op point.  (Use ".option noopiter" to skip.)
Starting Gmin stepping
Gmin = 10
Gmin = 1.07374
Gmin = 0.115292
Gmin = 0.0123794
Gmin = 0.00132923
Gmin = 0.000142725
Gmin = 1.5325e-005
Gmin = 1.6455e-006
Gmin = 1.76685e-007
Gmin = 1.89714e-008
Gmin = 2.03704e-009
Gmin = 2.18725e-010
Gmin = 2.34854e-011
Gmin = 2.52173e-012
Gmin = 2.70769e-013
Gmin = 0
Gmin stepping succeeded in finding the operating point.


Date: Tue Nov 15 20:16:08 2022
Total elapsed time: 0.098 seconds.

tnom = 27
temp = 27
method = trap
totiter = 438
traniter = 0
tranpoints = 0
accept = 0
rejected = 0
matrix size = 26
fillins = 12
solver = Normal
Matrix Compiler1:     123 opcodes
Matrix Compiler2: off  [0.2]/0.2/0.4

